# generated using pymatgen
data_AlRh
_symmetry_space_group_name_H-M   'P 1'
_cell_length_a   4.24497843
_cell_length_b   4.24497843
_cell_length_c   4.24497843
_cell_angle_alpha   60.00000000
_cell_angle_beta   60.00000000
_cell_angle_gamma   60.00000000
_symmetry_Int_Tables_number   1
_chemical_formula_structural   AlRh
_chemical_formula_sum   'Al2 Rh2'
_cell_volume   54.08931294
_cell_formula_units_Z   2
loop_
 _symmetry_equiv_pos_site_id
 _symmetry_equiv_pos_as_xyz
  1  'x, y, z'
loop_
 _atom_site_type_symbol
 _atom_site_label
 _atom_site_symmetry_multiplicity
 _atom_site_fract_x
 _atom_site_fract_y
 _atom_site_fract_z
 _atom_site_occupancy
  Al  Al0  1  0.00000000  0.00000000  0.00000000  1
  Al  Al1  1  0.49999999  0.49999999  0.49999999  1
  Rh  Rh2  1  0.25000000  0.25000000  0.25000000  1
  Rh  Rh3  1  0.74999999  0.74999999  0.74999999  1
