# generated using pymatgen
data_MgZnP2O7
_symmetry_space_group_name_H-M   'P 1'
_cell_length_a   4.61789083
_cell_length_b   5.57273102
_cell_length_c   5.57273102
_cell_angle_alpha   102.88964844
_cell_angle_beta   100.29301453
_cell_angle_gamma   100.29301453
_symmetry_Int_Tables_number   1
_chemical_formula_structural   MgZnP2O7
_chemical_formula_sum   'Mg1 Zn1 P2 O7'
_cell_volume   133.92839676
_cell_formula_units_Z   1
loop_
 _symmetry_equiv_pos_site_id
 _symmetry_equiv_pos_as_xyz
  1  'x, y, z'
loop_
 _atom_site_type_symbol
 _atom_site_label
 _atom_site_symmetry_multiplicity
 _atom_site_fract_x
 _atom_site_fract_y
 _atom_site_fract_z
 _atom_site_occupancy
  Zn  Zn0  1  0.50000001  0.30761001  0.69239002  1
  Mg  Mg1  1  0.50000002  0.69027701  0.30972302  1
  P  P2  1  0.90956602  0.19831500  0.21104401  1
  P  P3  1  0.09043401  0.78895602  0.80168503  1
  O  O4  1  0.71786402  0.34537701  0.08005001  1
  O  O5  1  0.28213601  0.91995002  0.65462303  1
  O  O6  1  0.00000001  0.98739002  0.01261002  1
  O  O7  1  0.74190901  0.05237500  0.37065201  1
  O  O8  1  0.25809101  0.62934801  0.94762503  1
  O  O9  1  0.21298501  0.37961001  0.36460901  1
  O  O10  1  0.78701502  0.63539101  0.62039003  1
